Version 4
SHEET 1 880 680
WIRE 688 32 128 32
WIRE 128 160 128 32
WIRE 688 160 688 32
SYMBOL 74HCT\\74hct04 176 96 R0
SYMATTR InstName U1
SYMBOL 74HCT\\74hct04 288 96 R0
SYMATTR InstName U2
SYMBOL 74HCT\\74hct04 400 96 R0
SYMATTR InstName U3
SYMBOL 74HCT\\74hct04 512 96 R0
SYMATTR InstName U4
SYMBOL 74HCT\\74hct04 624 96 R0
SYMATTR InstName U5
TEXT 336 -112 Left 2 !.lib 74HCT.lib
TEXT 122 204 Left 2 !.tran 0 0.000001 0 1000u
