Version 4
SHEET 1 880 680
WIRE 96 48 32 48
WIRE 240 48 176 48
WIRE 32 160 32 48
WIRE 144 160 144 144
WIRE 144 160 32 160
WIRE 240 160 240 48
WIRE 256 160 240 160
WIRE 320 160 256 160
WIRE 144 176 144 160
WIRE 32 224 32 160
WIRE 32 320 32 288
WIRE 320 320 32 320
FLAG 320 320 0
SYMBOL 74HCT\\74hct132 192 96 R0
SYMATTR InstName 5V
SYMBOL cap 16 224 R0
SYMATTR InstName C1
SYMATTR Value 10n
SYMBOL res 192 32 R90
WINDOW 0 0 56 VBottom 2
WINDOW 3 32 56 VTop 2
SYMATTR InstName R1
SYMATTR Value 470
TEXT 40 -48 Left 2 !.lib 74HCT.lib
TEXT 14 326 Left 2 !.tran 0 100u 0 1u
